xflr5 v6.49

 Calculated polar for: NACA 64(2)-215-(201)

 1 1 Reynolds number fixed          Mach number fixed         

 xtrf =   1.000 (top)        1.000 (bottom)
 Mach =   0.000     Re =     3.000 e 6     Ncrit =   9.000

  alpha     CL        CD       CDp       Cm    Top Xtr Bot Xtr   Cpmin    Chinge    XCp    
 ------- -------- --------- --------- -------- ------- ------- -------- --------- ---------
 -23.750  -0.9572   0.20887   0.20764   0.0423  1.0000  0.0086  -8.5840   0.0000   0.2549
 -23.500  -0.9924   0.19502   0.19366   0.0334  1.0000  0.0089  -9.4277   0.0000   0.2443
 -23.250  -1.0188   0.18407   0.18261   0.0260  1.0000  0.0090  -9.9840   0.0000   0.2365
 -23.000  -1.0423   0.17424   0.17268   0.0194  1.0000  0.0091  -10.4237   0.0000   0.2300
 -22.750  -1.0704   0.16362   0.16196   0.0123  1.0000  0.0091  -10.8977   0.0000   0.2234
 -22.500  -1.1084   0.15133   0.14954   0.0042  1.0000  0.0091  -11.4798   0.0000   0.2162
 -22.250  -1.1541   0.13790   0.13596  -0.0044  1.0000  0.0091  -12.1166   0.0000   0.2092
 -22.000  -1.2067   0.12378   0.12165  -0.0131  1.0000  0.0091  -12.7823   0.0000   0.2028
 -21.750  -1.2500   0.11199   0.10970  -0.0201  1.0000  0.0091  -13.2618   0.0000   0.1983
 -21.500  -1.2850   0.10216   0.09972  -0.0257  1.0000  0.0091  -13.5954   0.0000   0.1951
 -21.250  -1.3126   0.09395   0.09139  -0.0301  1.0000  0.0091  -13.8115   0.0000   0.1929
 -21.000  -1.3336   0.08708   0.08440  -0.0336  1.0000  0.0091  -13.9314   0.0000   0.1914
 -20.750  -1.3506   0.08108   0.07829  -0.0366  1.0000  0.0091  -13.9934   0.0000   0.1902
 -20.500  -1.3637   0.07583   0.07295  -0.0390  1.0000  0.0091  -14.0023   0.0000   0.1894
 -20.250  -1.3738   0.07116   0.06819  -0.0410  1.0000  0.0092  -13.9715   0.0000   0.1889
 -20.000  -1.3815   0.06694   0.06388  -0.0427  1.0000  0.0092  -13.9148   0.0000   0.1885
 -19.750  -1.3869   0.06310   0.05997  -0.0442  1.0000  0.0092  -13.8317   0.0000   0.1882
 -19.500  -1.3899   0.05965   0.05645  -0.0455  1.0000  0.0093  -13.7231   0.0000   0.1880
 -19.250  -1.3916   0.05644   0.05317  -0.0466  1.0000  0.0093  -13.5984   0.0000   0.1879
 -19.000  -1.3955   0.05299   0.04964  -0.0477  1.0000  0.0093  -13.4967   0.0000   0.1878
 -18.750  -1.4058   0.04891   0.04545  -0.0490  1.0000  0.0094  -13.4582   0.0000   0.1879
 -18.500  -1.4115   0.04545   0.04190  -0.0499  1.0000  0.0096  -13.3716   0.0000   0.1880
 -18.250  -1.4135   0.04252   0.03890  -0.0506  1.0000  0.0097  -13.2459   0.0000   0.1882
 -18.000  -1.4124   0.03999   0.03631  -0.0510  1.0000  0.0098  -13.0898   0.0000   0.1885
 -17.750  -1.4091   0.03780   0.03406  -0.0513  1.0000  0.0099  -12.9107   0.0000   0.1888
 -17.500  -1.4037   0.03585   0.03207  -0.0514  1.0000  0.0100  -12.7131   0.0000   0.1891
 -17.250  -1.3968   0.03408   0.03025  -0.0515  1.0000  0.0101  -12.5023   0.0000   0.1894
 -17.000  -1.3888   0.03243   0.02856  -0.0516  1.0000  0.0102  -12.2832   0.0000   0.1897
 -16.750  -1.3800   0.03088   0.02696  -0.0515  1.0000  0.0103  -12.0590   0.0000   0.1901
 -16.500  -1.3707   0.02940   0.02544  -0.0514  1.0000  0.0104  -11.8322   0.0000   0.1904
 -16.250  -1.3607   0.02801   0.02401  -0.0512  1.0000  0.0105  -11.6015   0.0000   0.1908
 -16.000  -1.3501   0.02671   0.02266  -0.0510  1.0000  0.0106  -11.3674   0.0000   0.1912
 -15.750  -1.3389   0.02548   0.02140  -0.0506  1.0000  0.0108  -11.1297   0.0000   0.1916
 -15.500  -1.3270   0.02435   0.02022  -0.0502  1.0000  0.0109  -10.8890   0.0000   0.1921
 -15.250  -1.3146   0.02329   0.01912  -0.0498  1.0000  0.0109  -10.6455   0.0000   0.1926
 -15.000  -1.3016   0.02230   0.01810  -0.0492  1.0000  0.0110  -10.4050   0.0000   0.1931
 -14.750  -1.2880   0.02140   0.01715  -0.0486  1.0000  0.0111  -10.1659   0.0000   0.1936
 -14.500  -1.2737   0.02059   0.01631  -0.0480  1.0000  0.0112  -9.9219   0.0000   0.1942
 -14.250  -1.2586   0.01985   0.01555  -0.0473  1.0000  0.0112  -9.6749   0.0000   0.1947
 -14.000  -1.2505   0.01871   0.01435  -0.0459  1.0000  0.0114  -9.4863   0.0000   0.1960
 -13.750  -1.2405   0.01778   0.01337  -0.0446  1.0000  0.0117  -9.2823   0.0000   0.1972
 -13.500  -1.2289   0.01703   0.01259  -0.0431  1.0000  0.0119  -9.0663   0.0000   0.1985
 -13.250  -1.2174   0.01639   0.01192  -0.0414  1.0000  0.0120  -8.8498   0.0000   0.2000
 -13.000  -1.2075   0.01585   0.01136  -0.0391  1.0000  0.0122  -8.6430   0.0000   0.2020
 -12.750  -1.1709   0.01527   0.01074  -0.0421  0.9714  0.0124  -8.2886   0.0000   0.1988
 -12.500  -1.1447   0.01487   0.01023  -0.0426  0.9341  0.0126  -8.0018   0.0000   0.1979
 -12.250  -1.1282   0.01455   0.00982  -0.0410  0.9097  0.0128  -7.7739   0.0000   0.1991
 -12.000  -1.1094   0.01422   0.00942  -0.0398  0.8923  0.0129  -7.5368   0.0000   0.1999
 -11.750  -1.0893   0.01390   0.00903  -0.0389  0.8779  0.0131  -7.2965   0.0000   0.2005
 -11.500  -1.0682   0.01359   0.00866  -0.0380  0.8650  0.0132  -7.0548   0.0000   0.2009
 -11.250  -1.0462   0.01329   0.00831  -0.0374  0.8533  0.0134  -6.8114   0.0000   0.2011
 -11.000  -1.0247   0.01292   0.00788  -0.0366  0.8421  0.0136  -6.5784   0.0000   0.2014
 -10.750  -1.0032   0.01251   0.00741  -0.0359  0.8316  0.0140  -6.3546   0.0000   0.2017
 -10.500  -0.9800   0.01218   0.00704  -0.0354  0.8222  0.0144  -6.1279   0.0000   0.2016
 -10.250  -0.9559   0.01189   0.00673  -0.0351  0.8142  0.0147  -5.8980   0.0000   0.2014
 -10.000  -0.9314   0.01163   0.00644  -0.0348  0.8059  0.0151  -5.6704   0.0000   0.2010
  -9.750  -0.9063   0.01137   0.00615  -0.0345  0.7984  0.0154  -5.4448   0.0000   0.2005
  -9.500  -0.8810   0.01114   0.00588  -0.0343  0.7907  0.0156  -5.2216   0.0000   0.1999
  -9.250  -0.8552   0.01092   0.00563  -0.0342  0.7829  0.0158  -4.9994   0.0000   0.1992
  -9.000  -0.8303   0.01059   0.00527  -0.0339  0.7758  0.0166  -4.8032   0.0000   0.1986
  -8.750  -0.8044   0.01035   0.00501  -0.0338  0.7683  0.0173  -4.5997   0.0000   0.1976
  -8.500  -0.7781   0.01014   0.00478  -0.0337  0.7616  0.0179  -4.3964   0.0000   0.1965
  -8.250  -0.7514   0.00996   0.00457  -0.0337  0.7541  0.0184  -4.1951   0.0000   0.1952
  -8.000  -0.7248   0.00972   0.00432  -0.0337  0.7475  0.0193  -4.0013   0.0000   0.1938
  -7.500  -0.6709   0.00934   0.00391  -0.0337  0.7332  0.0212  -3.6155   0.0000   0.1904
  -7.250  -0.6437   0.00918   0.00372  -0.0338  0.7257  0.0221  -3.4363   0.0000   0.1884
  -7.000  -0.6165   0.00897   0.00351  -0.0338  0.7189  0.0236  -3.2623   0.0000   0.1862
  -6.750  -0.5889   0.00883   0.00335  -0.0339  0.7119  0.0248  -3.0889   0.0000   0.1836
  -6.500  -0.5612   0.00867   0.00318  -0.0340  0.7053  0.0260  -2.9191   0.0000   0.1806
  -6.250  -0.5336   0.00850   0.00300  -0.0342  0.6987  0.0278  -2.7528   0.0000   0.1774
  -6.000  -0.5055   0.00837   0.00285  -0.0343  0.6923  0.0291  -2.5877   0.0000   0.1737
  -5.750  -0.4777   0.00821   0.00269  -0.0345  0.6858  0.0314  -2.4278   0.0000   0.1695
  -5.500  -0.4496   0.00807   0.00255  -0.0346  0.6797  0.0336  -2.2695   0.0000   0.1647
  -5.250  -0.4216   0.00792   0.00240  -0.0348  0.6731  0.0373  -2.1159   0.0000   0.1592
  -5.000  -0.3934   0.00776   0.00226  -0.0350  0.6674  0.0428  -1.9650   0.0000   0.1529
  -4.750  -0.3654   0.00760   0.00212  -0.0352  0.6607  0.0518  -1.8182   0.0000   0.1456
  -4.500  -0.3374   0.00739   0.00197  -0.0354  0.6551  0.0666  -1.6793   0.0000   0.1370
  -4.250  -0.3095   0.00718   0.00182  -0.0355  0.6485  0.0872  -1.5483   0.0000   0.1269
  -4.000  -0.2818   0.00690   0.00166  -0.0358  0.6429  0.1195  -1.4207   0.0000   0.1147
  -3.750  -0.2542   0.00659   0.00150  -0.0360  0.6367  0.1627  -1.2969   0.0000   0.1000
  -3.500  -0.2266   0.00623   0.00133  -0.0362  0.6314  0.2178  -1.1762   0.0000   0.0815
  -3.250  -0.1994   0.00579   0.00114  -0.0364  0.6257  0.2920  -1.0595   0.0000   0.0581
  -3.000  -0.1721   0.00536   0.00096  -0.0367  0.6202  0.3684  -0.9569   0.0000   0.0271
  -2.750  -0.1440   0.00503   0.00085  -0.0370  0.6151  0.4342  -0.8614   0.0000  -0.0171
  -2.500  -0.1150   0.00496   0.00081  -0.0373  0.6094  0.4559  -0.7687   0.0000  -0.0858
  -2.250  -0.0856   0.00491   0.00078  -0.0377  0.6048  0.4678  -0.6824   0.0000  -0.2031
  -2.000  -0.0563   0.00486   0.00076  -0.0380  0.5996  0.4817  -0.5984   0.0000  -0.4418
  -1.750  -0.0271   0.00483   0.00074  -0.0383  0.5945  0.4942  -0.5209   0.0000  -1.1971
  -1.500   0.0024   0.00479   0.00072  -0.0387  0.5899  0.5068  -0.5112   0.0000  16.8686
  -1.250   0.0317   0.00477   0.00071  -0.0390  0.5847  0.5190  -0.5264   0.0000   1.4980
  -1.000   0.0611   0.00475   0.00071  -0.0394  0.5802  0.5282  -0.5416   0.0000   0.8998
  -0.750   0.0906   0.00474   0.00071  -0.0397  0.5757  0.5378  -0.5570   0.0000   0.6905
  -0.500   0.1199   0.00474   0.00071  -0.0400  0.5706  0.5461  -0.5722   0.0000   0.5842
  -0.250   0.1495   0.00474   0.00071  -0.0404  0.5664  0.5511  -0.5876   0.0000   0.5195
   0.000   0.1789   0.00475   0.00072  -0.0407  0.5612  0.5565  -0.6029   0.0000   0.4761
   0.250   0.2083   0.00478   0.00073  -0.0411  0.5559  0.5611  -0.6182   0.0000   0.4450
   0.500   0.2379   0.00477   0.00074  -0.0414  0.5515  0.5668  -0.6336   0.0000   0.4216
   0.750   0.2672   0.00479   0.00076  -0.0417  0.5463  0.5717  -0.6490   0.0000   0.4034
   1.000   0.2967   0.00481   0.00077  -0.0421  0.5410  0.5758  -0.6644   0.0000   0.3887
   1.250   0.3259   0.00484   0.00079  -0.0424  0.5329  0.5808  -0.6798   0.0000   0.3767
   1.500   0.3552   0.00487   0.00082  -0.0427  0.5251  0.5855  -0.6954   0.0000   0.3666
   1.750   0.3844   0.00492   0.00085  -0.0430  0.5177  0.5903  -0.7113   0.0000   0.3580
   2.000   0.4135   0.00495   0.00088  -0.0433  0.5080  0.5958  -0.7273   0.0000   0.3506
   2.250   0.4426   0.00502   0.00092  -0.0436  0.4967  0.6005  -0.7434   0.0000   0.3442
   2.500   0.4716   0.00506   0.00096  -0.0439  0.4869  0.6061  -0.8159   0.0000   0.3385
   2.750   0.5004   0.00514   0.00101  -0.0441  0.4741  0.6115  -0.9050   0.0000   0.3335
   3.000   0.5291   0.00522   0.00107  -0.0444  0.4602  0.6167  -0.9967   0.0000   0.3289
   3.250   0.5578   0.00531   0.00113  -0.0446  0.4466  0.6226  -1.0910   0.0000   0.3248
   3.750   0.6111   0.00589   0.00141  -0.0445  0.3616  0.6340  -1.3021   0.0000   0.3173
   4.000   0.6358   0.00639   0.00167  -0.0442  0.2995  0.6396  -1.4279   0.0000   0.3138
   4.250   0.6597   0.00696   0.00196  -0.0438  0.2314  0.6457  -1.5543   0.0000   0.3105
   4.500   0.6842   0.00745   0.00223  -0.0435  0.1756  0.6519  -1.6854   0.0000   0.3074
   4.750   0.7088   0.00792   0.00250  -0.0432  0.1284  0.6583  -1.8197   0.0000   0.3045
   5.000   0.7343   0.00827   0.00273  -0.0430  0.0984  0.6650  -1.9600   0.0000   0.3019
   5.250   0.7603   0.00857   0.00295  -0.0429  0.0777  0.6716  -2.1050   0.0000   0.2995
   5.500   0.7863   0.00886   0.00317  -0.0427  0.0610  0.6784  -2.2570   0.0000   0.2972
   5.750   0.8121   0.00914   0.00340  -0.0425  0.0476  0.6850  -2.4178   0.0000   0.2950
   6.000   0.8383   0.00939   0.00361  -0.0424  0.0391  0.6919  -2.5834   0.0000   0.2930
   6.250   0.8646   0.00961   0.00382  -0.0423  0.0339  0.6986  -2.7531   0.0000   0.2911
   6.500   0.8909   0.00983   0.00403  -0.0422  0.0304  0.7056  -2.9267   0.0000   0.2892
   6.750   0.9171   0.01004   0.00424  -0.0421  0.0279  0.7125  -3.1037   0.0000   0.2875
   7.000   0.9433   0.01024   0.00445  -0.0419  0.0261  0.7196  -3.2845   0.0000   0.2858
   7.250   0.9692   0.01045   0.00467  -0.0418  0.0245  0.7268  -3.4683   0.0000   0.2842
   7.500   0.9948   0.01069   0.00492  -0.0416  0.0228  0.7340  -3.6534   0.0000   0.2826
   7.750   1.0206   0.01089   0.00513  -0.0414  0.0217  0.7420  -3.8438   0.0000   0.2810
   8.000   1.0456   0.01114   0.00539  -0.0411  0.0201  0.7493  -4.0341   0.0000   0.2795
   8.250   1.0707   0.01137   0.00564  -0.0408  0.0190  0.7575  -4.2277   0.0000   0.2780
   8.500   1.0953   0.01162   0.00590  -0.0405  0.0178  0.7649  -4.4228   0.0000   0.2765
   8.750   1.1193   0.01190   0.00619  -0.0400  0.0165  0.7728  -4.6168   0.0000   0.2750
   9.000   1.1434   0.01216   0.00647  -0.0396  0.0156  0.7806  -4.8150   0.0000   0.2735
   9.500   1.1892   0.01278   0.00713  -0.0384  0.0139  0.7970  -5.2065   0.0000   0.2705
   9.750   1.2118   0.01307   0.00745  -0.0377  0.0134  0.8056  -5.4096   0.0000   0.2690
  10.250   1.2541   0.01375   0.00818  -0.0360  0.0124  0.8245  -5.8304   0.0000   0.2659
  10.500   1.2726   0.01418   0.00866  -0.0347  0.0119  0.8347  -6.0273   0.0000   0.2641
  10.750   1.2918   0.01450   0.00902  -0.0335  0.0118  0.8459  -6.2377   0.0000   0.2624
  11.000   1.3072   0.01482   0.00940  -0.0315  0.0116  0.8596  -6.4335   0.0000   0.2602
  11.250   1.3210   0.01518   0.00983  -0.0294  0.0114  0.8769  -6.6237   0.0000   0.2580
  11.500   1.3336   0.01558   0.01031  -0.0272  0.0112  0.9003  -6.8096   0.0000   0.2557
  11.750   1.3441   0.01598   0.01082  -0.0246  0.0111  0.9348  -6.9871   0.0000   0.2532
  12.750   1.3997   0.01846   0.01349  -0.0188  0.0104  1.0000  -7.7729   0.0000   0.2467
  13.000   1.4112   0.01932   0.01438  -0.0173  0.0102  1.0000  -7.9562   0.0000   0.2451
  13.250   1.4212   0.02032   0.01542  -0.0157  0.0100  1.0000  -8.1385   0.0000   0.2435
  13.500   1.4317   0.02133   0.01648  -0.0144  0.0099  1.0000  -8.3283   0.0000   0.2420
  13.750   1.4444   0.02222   0.01740  -0.0133  0.0098  1.0000  -8.5384   0.0000   0.2407
  14.000   1.4566   0.02318   0.01839  -0.0123  0.0098  1.0000  -8.7468   0.0000   0.2394
  14.250   1.4685   0.02419   0.01944  -0.0113  0.0097  1.0000  -8.9552   0.0000   0.2382
  14.500   1.4800   0.02526   0.02054  -0.0104  0.0096  1.0000  -9.1634   0.0000   0.2371
  14.750   1.4910   0.02639   0.02171  -0.0095  0.0095  1.0000  -9.3699   0.0000   0.2359
  15.000   1.5013   0.02761   0.02297  -0.0087  0.0094  1.0000  -9.5735   0.0000   0.2348
  15.250   1.5108   0.02892   0.02432  -0.0079  0.0093  1.0000  -9.7723   0.0000   0.2338
  15.500   1.5198   0.03031   0.02576  -0.0072  0.0093  1.0000  -9.9685   0.0000   0.2327
  15.750   1.5282   0.03178   0.02727  -0.0065  0.0092  1.0000  -10.1624   0.0000   0.2318
  16.000   1.5360   0.03334   0.02887  -0.0059  0.0091  1.0000  -10.3531   0.0000   0.2308
  16.250   1.5432   0.03498   0.03057  -0.0053  0.0090  1.0000  -10.5410   0.0000   0.2299
  16.500   1.5499   0.03672   0.03235  -0.0049  0.0090  1.0000  -10.7339   0.0000   0.2290
  16.750   1.5561   0.03855   0.03424  -0.0045  0.0089  1.0000  -10.9246   0.0000   0.2282
  17.000   1.5618   0.04050   0.03624  -0.0043  0.0088  1.0000  -11.1124   0.0000   0.2275
  17.250   1.5668   0.04257   0.03835  -0.0041  0.0088  1.0000  -11.2959   0.0000   0.2268
  17.500   1.5710   0.04478   0.04062  -0.0040  0.0087  1.0000  -11.4727   0.0000   0.2262
  17.750   1.5744   0.04714   0.04304  -0.0040  0.0086  1.0000  -11.6438   0.0000   0.2256
  18.000   1.5768   0.04968   0.04564  -0.0042  0.0086  1.0000  -11.8067   0.0000   0.2251
  18.250   1.5777   0.05245   0.04847  -0.0045  0.0085  1.0000  -11.9563   0.0000   0.2247
  18.500   1.5767   0.05553   0.05162  -0.0050  0.0084  1.0000  -12.0895   0.0000   0.2243
  18.750   1.5737   0.05896   0.05513  -0.0056  0.0083  1.0000  -12.2024   0.0000   0.2241
  19.000   1.5684   0.06276   0.05902  -0.0065  0.0082  1.0000  -12.2936   0.0000   0.2241
  19.250   1.5611   0.06697   0.06332  -0.0077  0.0082  1.0000  -12.3636   0.0000   0.2242
  19.500   1.5509   0.07171   0.06818  -0.0092  0.0081  1.0000  -12.4037   0.0000   0.2245
  19.750   1.5446   0.07604   0.07260  -0.0107  0.0081  1.0000  -12.4792   0.0000   0.2248
  20.000   1.5416   0.08001   0.07665  -0.0122  0.0081  1.0000  -12.5876   0.0000   0.2251
  20.250   1.5374   0.08423   0.08095  -0.0139  0.0080  1.0000  -12.6868   0.0000   0.2256
  20.500   1.5315   0.08882   0.08562  -0.0159  0.0080  1.0000  -12.7666   0.0000   0.2262
  20.750   1.5242   0.09374   0.09062  -0.0181  0.0080  1.0000  -12.8297   0.0000   0.2271
  21.000   1.5162   0.09888   0.09585  -0.0206  0.0080  1.0000  -12.8809   0.0000   0.2281
  21.250   1.5057   0.10457   0.10164  -0.0235  0.0080  1.0000  -12.9006   0.0000   0.2294
  21.500   1.4946   0.11049   0.10766  -0.0267  0.0080  1.0000  -12.9066   0.0000   0.2309
  21.750   1.4819   0.11681   0.11408  -0.0302  0.0080  1.0000  -12.8871   0.0000   0.2328
  22.000   1.4671   0.12362   0.12099  -0.0342  0.0079  1.0000  -12.8344   0.0000   0.2350
  22.250   1.4513   0.13072   0.12820  -0.0385  0.0079  1.0000  -12.7590   0.0000   0.2375
  22.500   1.4346   0.13812   0.13571  -0.0431  0.0079  1.0000  -12.6574   0.0000   0.2404
  22.750   1.4167   0.14582   0.14352  -0.0482  0.0079  1.0000  -12.5266   0.0000   0.2436
  23.000   1.3987   0.15366   0.15147  -0.0535  0.0079  1.0000  -12.3756   0.0000   0.2472
  23.250   1.3809   0.16155   0.15946  -0.0589  0.0079  1.0000  -12.2081   0.0000   0.2510
  23.500   1.3616   0.16984   0.16787  -0.0648  0.0079  1.0000  -11.9988   0.0000   0.2552
  23.750   1.3435   0.17802   0.17614  -0.0708  0.0078  1.0000  -11.7833   0.0000   0.2597
  24.000   1.3268   0.18596   0.18418  -0.0766  0.0078  1.0000  -11.5673   0.0000   0.2642
  24.250   1.3122   0.19355   0.19186  -0.0823  0.0078  1.0000  -11.3632   0.0000   0.2685
  24.500   1.2983   0.20106   0.19945  -0.0880  0.0078  1.0000  -11.1504   0.0000   0.2730
  24.750   1.2852   0.20851   0.20698  -0.0937  0.0077  1.0000  -10.9269   0.0000   0.2775
  25.000   1.2730   0.21579   0.21433  -0.0993  0.0077  1.0000  -10.6995   0.0000   0.2821


